*SPEF "IEEE 1481-1998"
*DESIGN "cruisecontrol"
*DATE "Wed Nov  1 17:47:20 2023"
*VENDOR "Cadence Design Systems, Inc."
*PROGRAM "Innovus"
*VERSION "21.17-s075_1"
*DESIGN_FLOW "PIN_CAP NONE" "NAME_SCOPE LOCAL"
*DIVIDER /
*DELIMITER :
*BUS_DELIMITER []
*T_UNIT 1 NS
*C_UNIT 1 PF
*R_UNIT 1 OHM
*L_UNIT 1 HENRY

*NAME_MAP

*1 clk
*2 reset
*3 throttle
*4 set
*5 accel
*6 coast
*7 cancel
*8 resume
*9 brake
*10 speed[7]
*11 speed[6]
*12 speed[5]
*13 speed[4]
*14 speed[3]
*15 speed[2]
*16 speed[1]
*17 speed[0]
*18 cruisespeed[7]
*19 cruisespeed[6]
*20 cruisespeed[5]
*21 cruisespeed[4]
*22 cruisespeed[3]
*23 cruisespeed[2]
*24 cruisespeed[1]
*25 cruisespeed[0]
*26 cruisectrl
*27 n297
*28 n298
*29 n299
*30 n300
*31 n301
*32 n302
*33 n303
*34 n304
*35 n305
*36 n306
*37 n307
*38 n308
*39 n309
*40 n310
*41 n311
*42 n312
*43 N49
*44 N62
*45 N64
*46 N66
*47 N120
*48 N122
*49 N123
*50 N124
*51 N125
*52 N126
*53 N127
*54 N138
*55 N139
*56 N140
*57 N141
*58 N142
*59 N143
*60 N144
*61 N145
*62 N155
*63 N156
*64 N157
*65 N158
*66 N159
*67 N160
*68 N161
*69 N162
*70 N181
*71 N182
*72 n2
*73 n3
*74 n4
*75 n5
*76 n6
*77 n7
*78 n8
*79 n9
*80 n18
*81 n19
*82 n20
*83 n21
*84 n24
*85 n25
*86 n26
*87 n27
*88 n29
*89 n30
*90 n31
*91 n32
*92 n35
*93 n36
*94 n37
*95 n38
*96 n39
*97 n41
*98 n42
*99 n44
*100 n45
*101 n46
*102 n48
*103 n49
*104 n51
*105 n52
*106 n54
*107 n55
*108 n57
*109 n61
*110 n64
*111 n65
*112 n66
*113 n67
*114 n68
*115 n70
*116 n72
*117 n73
*118 n75
*119 n77
*120 n78
*121 n80
*122 n82
*123 n83
*124 n85
*125 n87
*126 n88
*127 n90
*128 n91
*129 n92
*130 n93
*131 n94
*132 n95
*133 n97
*134 n100
*135 n102
*136 n104
*137 n105
*138 n107
*139 n108
*140 n111
*141 n112
*142 n113
*143 n114
*144 n115
*145 n116
*146 n118
*147 n119
*148 n121
*149 n122
*150 n123
*151 n124
*152 n125
*153 n126
*154 n128
*155 n129
*156 n130
*157 n131
*158 n132
*159 n133
*160 n134
*161 n135
*162 n137
*163 n138
*164 n139
*165 n140
*166 n141
*167 n142
*168 n143
*169 n144
*170 n145
*171 n146
*172 n147
*173 n148
*174 n149
*175 n150
*176 n151
*177 n152
*178 n153
*179 n154
*180 n155
*181 n156
*182 n158
*183 n159
*184 n160
*185 n161
*186 n162
*187 n163
*188 n164
*189 n165
*190 n166
*191 n167
*192 n168
*193 n169
*194 n170
*195 n171
*196 n172
*197 n173
*198 n174
*199 n175
*200 n176
*201 n177
*202 n178
*203 n179
*204 n182
*205 n187
*206 n189
*207 n191
*208 n193
*209 n195
*210 n197
*211 n199
*212 n201
*213 n203
*214 n205
*215 n207
*216 n209
*217 n210
*218 n211
*219 n212
*220 n213
*221 n214
*222 n215
*223 n216
*224 n217
*225 n218
*226 n219
*227 n220
*228 n221
*229 n222
*230 n223
*231 n224
*232 n225
*233 n226
*234 n227
*235 n228
*236 n229
*237 n230
*238 n231
*239 n232
*240 n233
*241 n234
*242 n235
*243 n236
*244 n237
*245 n238
*246 n239
*247 n240
*248 n241
*249 n242
*250 n243
*251 n244
*252 n245
*253 n246
*254 n247
*255 n248
*256 n249
*257 n250
*258 n251
*259 n252
*260 n253
*261 n254
*262 n255
*263 n256
*264 n257
*265 n258
*266 n259
*267 n260
*268 n261
*269 n262
*270 n263
*271 n264
*272 n265
*273 n266
*274 n267
*275 n268
*276 n269
*277 n270
*278 n271
*279 n272
*280 n273
*281 n274
*282 n275
*283 n276
*284 n277
*285 n278
*286 n279
*287 n280
*288 n281
*289 n282
*290 n283
*291 n284
*292 n285
*293 n286
*294 n287
*295 n288
*296 n289
*297 n290
*298 n291
*299 n292
*300 n293
*301 n294
*302 n295
*303 n296
*304 state[2]
*305 state[1]
*306 state[0]
*307 r130\/carry[7]
*308 r130\/carry[6]
*309 r130\/carry[5]
*310 r130\/carry[4]
*311 r130\/carry[3]
*312 add_118/carry[7]
*313 add_118/carry[6]
*314 add_118/carry[5]
*315 add_118/carry[4]
*316 add_118/carry[3]
*317 add_118/carry[2]
*318 r127/carry[7]
*319 r127/carry[6]
*320 r127/carry[5]
*321 r127/carry[4]
*322 r127/carry[3]
*323 r127/carry[2]
*324 cruisespeed_reg\[0\]
*325 cruisespeed_reg\[7\]
*326 cruisespeed_reg\[6\]
*327 speed_reg\[1\]
*328 state_reg\[1\]
*329 speed_reg\[0\]
*330 speed_reg\[7\]
*331 speed_reg\[6\]
*332 speed_reg\[5\]
*333 state_reg\[0\]
*334 state_reg\[2\]
*335 cruisectrl_reg
*336 speed_reg\[4\]
*337 cruisespeed_reg\[4\]
*338 speed_reg\[3\]
*339 cruisespeed_reg\[3\]
*340 speed_reg\[2\]
*341 cruisespeed_reg\[2\]
*342 cruisespeed_reg\[5\]
*343 cruisespeed_reg\[1\]
*344 U3
*345 U4
*346 U5
*347 U6
*348 U7
*349 U8
*350 U9
*351 U10
*352 U11
*353 U12
*354 U13
*355 U14
*356 U15
*357 U18
*358 U19
*359 U20
*360 U21
*361 U22
*362 U23
*363 U24
*364 U30
*365 U31
*366 U32
*367 U33
*368 U34
*369 U35
*370 U36
*371 U38
*372 U39
*373 U40
*374 U41
*375 U42
*376 U44
*377 U45
*378 U46
*379 U47
*380 U49
*381 U50
*382 U51
*383 U52
*384 U54
*385 U55
*386 U56
*387 U57
*388 U60
*389 U61
*390 U62
*391 U63
*392 U66
*393 U67
*394 U68
*395 U69
*396 U71
*397 U72
*398 U74
*399 U75
*400 U76
*401 U78
*402 U79
*403 U80
*404 U81
*405 U82
*406 U83
*407 U84
*408 U85
*409 U86
*410 U87
*411 U88
*412 U92
*413 U93
*414 U94
*415 U96
*416 U97
*417 U98
*418 U99
*419 U100
*420 U101
*421 U103
*422 U104
*423 U106
*424 U107
*425 U109
*426 U110
*427 U113
*428 U114
*429 U117
*430 U118
*431 U119
*432 U120
*433 U121
*434 U123
*435 U126
*436 U129
*437 U130
*438 U131
*439 U132
*440 U133
*441 U134
*442 U135
*443 U136
*444 U137
*445 U138
*446 U139
*447 U140
*448 U143
*449 U144
*450 U146
*451 U147
*452 U148
*453 U149
*454 U150
*455 U151
*456 U152
*457 U154
*458 U155
*459 U157
*460 U160
*461 U162
*462 U164
*463 U73
*464 U115
*465 U124
*466 add_118/U1_1_6
*467 add_118/U1_1_5
*468 add_118/U1_1_4
*469 add_118/U1_1_3
*470 add_118/U1_1_2
*471 add_118/U1_1_1
*472 add_118/U1
*473 add_118/U2
*474 r127/U1_1_6
*475 r127/U1_1_5
*476 r127/U1_1_4
*477 r127/U1_1_3
*478 r127/U1_1_2
*479 r127/U1_1_1
*480 r127/U1
*481 r127/U2
*482 U166
*483 U167
*484 U168
*485 U169
*486 U170
*487 U171
*488 U172
*489 U173
*490 U174
*491 U175
*492 U176
*493 U177
*494 U178
*495 U179
*496 U180
*497 U181
*498 U182
*499 U183
*500 U184
*501 U185
*502 U186
*503 U187
*504 U188
*505 U189
*506 U190
*507 U191
*508 U192
*509 U193
*510 U194
*511 U195
*512 U196
*513 U197
*514 U198
*515 U199
*516 U200
*517 U201
*518 U202
*519 U203
*520 U204
*521 U205
*522 U206
*523 U207
*524 U208
*525 U209
*526 U210
*527 U211
*528 U212
*529 U213
*530 U214
*531 U215
*532 U216
*533 U217
*534 U218
*535 U219
*536 U220
*537 U221
*538 U222
*539 U223
*540 U224
*541 U225
*542 U226
*543 U227
*544 U228
*545 U229
*546 U230
*547 U231
*548 U232
*549 U233
*550 U234
*551 U235
*552 U236
*553 U237
*554 U238
*555 U239
*556 U240
*557 U241
*558 U242
*559 U243
*560 U244
*561 U245
*562 U246
*563 U247
*564 U248
*565 U249
*566 U250
*567 U251
*568 U252
*569 U253
*570 U254
*571 U255
*572 U256
*573 U257
*574 U258
*575 U259
*576 U260
*577 U261
*578 U262
*579 U263
*580 U264
*581 U265
*582 U266
*583 U267
*584 U268
*585 U269
*586 U270
*587 U271
*588 U272
*589 U273
*590 U274
*591 U275
*592 U276
*593 U277
*594 U278
*595 U279
*596 U280
*597 U281
*598 U282
*599 U283
*600 U284
*601 U285
*602 U286
*603 U287
*604 U288
*605 U289
*606 U290
*607 U291
*608 U292
*609 U293
*610 U294
*611 U295
*612 U296
*613 U297
*614 U298
*615 U299
*616 U300
*617 U301
*618 U302
*619 U303
*620 U304
*621 U305
*622 U306
*623 U307
*624 U308
*625 U309


*PORTS

*1 I *C 0 0
*2 I *C 0 0
*3 I *C 0 0
*4 I *C 0 0
*5 I *C 0 0
*6 I *C 0 0
*7 I *C 0 0
*8 I *C 0 0
*9 I *C 0 0
*10 O *C 0 0
*11 O *C 0 0
*12 O *C 0 0
*13 O *C 0 0
*14 O *C 0 0
*15 O *C 0 0
*16 O *C 0 0
*17 O *C 0 0
*18 O *C 0 0
*19 O *C 0 0
*20 O *C 0 0
*21 O *C 0 0
*22 O *C 0 0
*23 O *C 0 0
*24 O *C 0 0
*25 O *C 0 0
*26 O *C 0 0


*D_NET *1 0

*CONN
*I *341:CLK I *C 43.6 56.5 *L 0 *D DFFPOSX1
*I *339:CLK I *C 45.2 63.5 *L 0 *D DFFPOSX1
*I *324:CLK I *C 46.8 43.5 *L 0 *D DFFPOSX1
*I *337:CLK I *C 44.4 76.5 *L 0 *D DFFPOSX1
*I *343:CLK I *C 84.4 36.5 *L 0 *D DFFPOSX1
*I *342:CLK I *C 45.2 96.5 *L 0 *D DFFPOSX1
*I *327:CLK I *C 118 36.5 *L 0 *D DFFPOSX1
*I *329:CLK I *C 120.4 36.5 *L 0 *D DFFPOSX1
*I *326:CLK I *C 50 116.5 *L 0 *D DFFPOSX1
*I *325:CLK I *C 72.4 123.5 *L 0 *D DFFPOSX1
*I *340:CLK I *C 118 56.5 *L 0 *D DFFPOSX1
*I *338:CLK I *C 118 63.5 *L 0 *D DFFPOSX1
*I *336:CLK I *C 118.8 76.5 *L 0 *D DFFPOSX1
*I *332:CLK I *C 118 83.5 *L 0 *D DFFPOSX1
*I *331:CLK I *C 118 96.5 *L 0 *D DFFPOSX1
*I *330:CLK I *C 118 103.5 *L 0 *D DFFPOSX1
*I *333:CLK I *C 131.6 136.5 *L 0 *D DFFPOSX1
*I *334:CLK I *C 155.6 136.5 *L 0 *D DFFPOSX1
*I *335:CLK I *C 158.8 136.5 *L 0 *D DFFPOSX1
*I *328:CLK I *C 160.4 116.5 *L 0 *D DFFPOSX1

*CAP

*RES
1 *1:98 *328:CLK 4
2 *1:97 *1:98 4.8
3 *1:96 *1:97 4
4 *335:CLK *1:96 0.4
5 *1:94 *335:CLK 4
6 *1:93 *1:94 4
7 *1:92 *1:93 0.4
8 *1:90 *1:92 0.24
9 *1:89 *334:CLK 4
10 *1:88 *1:90 1.68
11 *1:87 *1:89 0.24
12 *1:86 *1:88 0.24
13 *1:85 *1:87 4
14 *1:85 *1:86 0.4
15 *1:84 *1:85 0.4
16 *1:82 *1:84 0.48
17 *1:81 *333:CLK 4
18 *1:80 *1:82 2.96
19 *1:79 *1:81 0.24
20 *1:78 *1:80 0.48
21 *1:77 *1:79 4
22 *1:77 *1:78 0.4
23 *1:76 *1:77 0.4
24 *1:75 *1:76 0.48
25 *1:74 *1:75 4.48
26 *1:73 *1:74 0.48
27 *1:72 *1:73 0.4
28 *1:71 *1:72 4
29 *1:70 *1:71 8.12
30 *1:68 *1:70 4
31 *1:66 *330:CLK 4
32 *1:66 *1:68 4
33 *1:64 *331:CLK 4
34 *1:64 *1:66 1.28
35 *1:62 *332:CLK 4
36 *1:62 *1:64 4
37 *1:61 *336:CLK 4
38 *1:61 *1:62 1.6
39 *1:60 *1:61 0.16
40 *1:59 *1:60 0.48
41 *1:57 *1:59 0.16
42 *1:55 *338:CLK 4
43 *1:55 *1:57 3.2
44 *1:53 *340:CLK 4
45 *1:53 *1:55 1.28
46 *1:52 *325:CLK 4
47 *1:51 *1:53 2.08
48 *1:50 *1:52 1.6
49 *1:49 *1:51 4
50 *1:48 *1:50 4
51 *1:47 *1:49 1.28
52 *1:46 *1:48 5.12
53 *1:45 *1:47 4
54 *1:43 *1:46 4
55 *1:42 *1:45 1.6
56 *1:41 *326:CLK 4
57 *1:41 *1:43 0.24
58 *1:39 *1:42 0.16
59 *1:38 *1:41 1.04
60 *1:36 *329:CLK 4
61 *1:36 *1:39 1.84
62 *1:35 *1:38 0.4
63 *1:34 *327:CLK 4
64 *1:33 *1:36 0.8
65 *1:32 *1:35 3.68
66 *1:31 *1:34 0.8
67 *1:31 *1:33 0.64
68 *1:30 *1:32 0.4
69 *1:29 *1:31 1.84
70 *1:28 *1:30 0.48
71 *1:27 *1:29 4
72 *342:CLK *1:28 4
73 *1:26 *1:27 0.4
74 *1:23 *1:26 0.24
75 *1:22 *342:CLK 4
76 *1:21 *343:CLK 4
77 *1:20 *1:23 6.8
78 *1:19 *1:22 0.8
79 *1:18 *1:21 2.4
80 *1:17 *1:20 0.24
81 *1:15 *1:19 0.16
82 *1:14 *1:18 4
83 *1:14 *1:17 0.4
84 *1:13 *337:CLK 4
85 *1:13 *1:15 4.48
86 *1:12 *1:14 11.28
87 *1:11 *1:13 0.8
88 *1:9 *1:12 4
89 *1:7 *1:11 0.16
90 *1:6 *324:CLK 4
91 *1:6 *1:9 4.48
92 *1:5 *339:CLK 4
93 *1:5 *1:7 2.64
94 *1:4 *1:6 4
95 *1:3 *1:5 1.28
96 *1:3 *1:4 0.4
97 *1:2 *1:3 0.4
98 *1:1 *1:2 0.48
99 *341:CLK *1:1 4
*END

*D_NET *2 0

*CONN
*I *396:A I *C 158 116.5 *L 0 *D OAI21X1
*I *401:A I *C 169.2 117.5 *L 0 *D NOR2X1
*I *398:B I *C 170.8 104.5 *L 0 *D NOR2X1
*I *602:A I *C 167.6 76.5 *L 0 *D INVX2

*CAP

*RES
1 *2:22 *602:A 0.4
2 *2:21 *2:22 4
3 *2:20 *2:21 1.6
4 *2:19 *2:20 0.4
5 *2:17 *2:19 0.8
6 *2:16 *398:B 0.4
7 *2:15 *2:17 0.16
8 *2:14 *2:16 4
9 *2:12 *2:15 2.64
10 *2:11 *2:14 3.2
11 *2:10 *401:A 4
12 *2:9 *2:12 0.16
13 *2:8 *2:11 4
14 *2:7 *2:10 0.24
15 *2:6 *2:9 5.6
16 *2:5 *2:8 0.8
17 *2:5 *2:7 4
18 *2:4 *2:6 4
19 *2:4 *2:5 1.28
20 *2:3 *2:4 1.44
21 *2:2 *2:3 4
22 *2:1 *2:2 4
23 *396:A *2:1 0.16
*END

*D_NET *3 0

*CONN
*I *435:C I *C 98 133.5 *L 0 *D NAND3X1
*I *379:A I *C 115.6 137.5 *L 0 *D NOR2X1
*I *608:A I *C 120.4 136.5 *L 0 *D INVX2

*CAP

*RES
1 *3:13 *608:A 0.16
2 *3:12 *379:A 4
3 *3:11 *3:13 4
4 *3:10 *3:12 0.24
5 *3:9 *3:11 4
6 *3:8 *3:10 4
7 *3:8 *3:9 1.04
8 *3:7 *3:8 0.4
9 *3:6 *3:7 0.48
10 *3:5 *3:6 3.84
11 *3:4 *3:5 0.48
12 *3:3 *3:4 0.4
13 *3:2 *3:3 4
14 *3:1 *3:2 0.8
15 *435:C *3:1 4
*END

*D_NET *5 0

*CONN
*I *455:A I *C 81.2 136.5 *L 0 *D NAND2X1
*I *454:B I *C 86.8 135.5 *L 0 *D NOR2X1

*CAP

*RES
1 *5:2 *454:B 4
2 *5:1 *455:A 4
3 *5:0 *5:2 1.44
4 *5:0 *5:1 0.24
*END

*D_NET *6 0

*CONN
*I *453:A I *C 90.8 136.5 *L 0 *D NAND2X1
*I *611:A I *C 91.6 136.5 *L 0 *D INVX2

*CAP

*RES
1 *453:A *611:A 0.16
*END

*D_NET *7 0

*CONN
*I *461:A I *C 134 122.5 *L 0 *D NOR2X1
*I *612:A I *C 154 123.5 *L 0 *D INVX2

*CAP

*RES
1 *7:6 *612:A 0.16
2 *7:5 *7:6 4
3 *7:4 *7:5 4
4 *7:3 *7:4 5.12
5 *7:2 *7:3 4
6 *7:1 *7:2 0.24
7 *461:A *7:1 4
*END

*D_NET *8 0

*CONN
*I *429:B I *C 146 135.5 *L 0 *D NOR2X1
*I *373:C I *C 150 124.5 *L 0 *D AOI22X1
*I *614:A I *C 157.2 83.5 *L 0 *D INVX2

*CAP

*RES
1 *8:13 *614:A 4
2 *8:12 *8:13 4
3 *8:11 *8:12 4
4 *8:9 *8:11 9.8
5 *8:8 *373:C 0.16
6 *8:7 *8:9 4
7 *8:6 *8:8 4
8 *8:5 *8:7 2.08
9 *8:4 *8:6 0.24
10 *8:4 *8:5 4
11 *8:3 *8:4 2.64
12 *8:2 *8:3 0.64
13 *8:1 *8:2 4
14 *429:B *8:1 0.16
*END

*D_NET *9 0

*CONN
*I *414:A I *C 124.4 136.5 *L 0 *D OAI21X1
*I *376:A I *C 128.4 136.5 *L 0 *D OAI21X1
*I *461:B I *C 135.6 124.5 *L 0 *D NOR2X1
*I *616:A I *C 170 123.5 *L 0 *D INVX2

*CAP

*RES
1 *9:17 *616:A 4
2 *9:16 *9:17 0.16
3 *9:15 *9:16 1.04
4 *9:13 *9:15 4
5 *9:12 *461:B 4
6 *9:11 *9:13 8.96
7 *9:10 *9:12 0.8
8 *9:10 *9:11 4
9 *9:9 *9:10 2.4
10 *9:8 *9:9 0.16
11 *9:6 *9:8 4
12 *9:5 *376:A 4
13 *9:4 *9:6 1.68
14 *9:4 *9:5 4
15 *9:3 *9:4 0.8
16 *9:2 *9:3 4
17 *9:1 *9:2 4
18 *414:A *9:1 0.16
*END

*D_NET *10 0

*CONN
*I *517:Y O *C 123.6 101.5 *L 0 *D INVX8
*I *483:A I *C 129.2 103.5 *L 0 *D XNOR2X1
*I *426:A I *C 131.6 82.5 *L 0 *D NOR2X1
*I *520:A I *C 152.4 103.5 *L 0 *D XNOR2X1
*I *481:B I *C 158.8 103.5 *L 0 *D XOR2X1
*I *557:A I *C 168.4 97.5 *L 0 *D NOR2X1

*CAP

*RES
1 *10:36 *557:A 4
2 *10:35 *10:36 4
3 *10:33 *10:35 2.72
4 *10:32 *481:B 0.16
5 *10:31 *10:33 4
6 *10:29 *10:32 4
7 *10:29 *10:31 1.6
8 *10:27 *520:A 4
9 *10:26 *10:29 0.24
10 *10:25 *426:A 0.16
11 *10:24 *10:27 4
12 *10:23 *10:26 4
13 *10:22 *10:25 4
14 *10:21 *10:24 0.24
15 *10:21 *10:23 1.44
16 *10:20 *10:22 3.44
17 *10:19 *10:21 0.4
18 *10:18 *10:20 0.4
19 *10:17 *10:19 0.24
20 *10:16 *10:18 1.28
21 *10:15 *10:17 2.32
22 *10:14 *10:16 0.16
23 *10:13 *10:15 0.24
24 *10:12 *10:14 0.8
25 *10:11 *10:13 0.64
26 *10:10 *10:12 4
27 *10:9 *10:11 0.24
28 *10:8 *10:10 0.48
29 *10:8 *10:9 1.28
30 *10:6 *10:8 1.68
31 *10:5 *483:A 0.16
32 *10:4 *10:6 4
33 *10:3 *10:5 4
34 *10:3 *10:4 0.48
35 *10:2 *10:3 0.4
36 *10:1 *10:2 4
37 *517:Y *10:1 0.4
*END

*D_NET *11 0

*CONN
*I *579:A I *C 89.2 96.5 *L 0 *D XOR2X1
*I *580:A I *C 90.8 95.5 *L 0 *D AOI22X1
*I *590:C I *C 99.6 96.5 *L 0 *D OAI22X1
*I *516:Y O *C 120.4 98.5 *L 0 *D INVX8
*I *426:B I *C 130 84.5 *L 0 *D NOR2X1

*CAP

*RES
1 *11:18 *426:B 4
2 *11:17 *11:18 2.08
3 *11:16 *11:17 4
4 *11:15 *11:16 1.28
5 *11:13 *11:15 0.48
6 *11:12 *516:Y 4
7 *11:10 *11:13 1.28
8 *11:10 *11:12 4
9 *11:9 *590:C 4
10 *11:8 *11:10 1.44
11 *11:7 *11:9 0.24
12 *11:6 *11:8 0.24
13 *11:5 *11:7 4
14 *11:5 *11:6 4
15 *11:4 *11:5 2.32
16 *11:3 *11:4 4
17 *580:A *11:3 4
18 *11:1 *580:A 0.24
19 *579:A *11:1 0.4
*END

*D_NET *12 0

*CONN
*I *577:B I *C 79.6 84.5 *L 0 *D NOR2X1
*I *563:A I *C 86 83.5 *L 0 *D NAND2X1
*I *515:Y O *C 126.8 81.5 *L 0 *D INVX8
*I *524:A I *C 148.4 83.5 *L 0 *D XNOR2X1
*I *559:C I *C 142 74.5 *L 0 *D OAI21X1
*I *523:B I *C 155.6 83.5 *L 0 *D OR2X1
*I *475:A I *C 158.8 83.5 *L 0 *D HAX1

*CAP

*RES
1 *12:32 *475:A 4
2 *12:31 *523:B 4
3 *12:30 *559:C 0.24
4 *12:28 *12:32 1.6
5 *12:27 *12:31 0.8
6 *12:26 *12:30 0.16
7 *12:25 *524:A 4
8 *12:24 *12:28 4
9 *12:23 *12:27 4
10 *12:22 *12:26 4
11 *12:21 *12:25 1.6
12 *12:20 *12:24 0.8
13 *12:20 *12:23 0.8
14 *12:18 *12:22 0.48
15 *12:17 *12:21 4
16 *12:17 *12:20 1.92
17 *12:16 *515:Y 4
18 *12:15 *12:18 4
19 *12:15 *12:17 1.92
20 *12:14 *12:16 1.04
21 *12:13 *12:15 3.36
22 *12:13 *12:14 4
23 *12:12 *12:13 4
24 *12:11 *12:12 1.12
25 *12:10 *12:11 4
26 *12:8 *12:10 10.43
27 *12:7 *563:A 0.64
28 *12:6 *12:8 4
29 *12:4 *12:7 4
30 *12:3 *12:6 4
31 *12:2 *577:B 4
32 *12:1 *12:4 0.24
33 *12:1 *12:3 4
34 *12:0 *12:2 0.48
35 *12:0 *12:1 1.04
*END

*D_NET *13 0

*CONN
*I *514:Y O *C 134.8 78.5 *L 0 *D INVX8
*I *559:B I *C 143.6 75.5 *L 0 *D OAI21X1
*I *526:A I *C 149.2 76.5 *L 0 *D XNOR2X1
*I *476:A I *C 158.8 76.5 *L 0 *D HAX1
*I *525:B I *C 156.4 76.5 *L 0 *D OR2X1

*CAP

*RES
1 *13:18 *525:B 0.4
2 *13:18 *476:A 0.16
3 *13:16 *13:18 4
4 *13:15 *526:A 0.16
5 *13:14 *13:16 0.48
6 *13:13 *13:15 4
7 *13:12 *13:14 4
8 *13:10 *13:13 0.24
9 *13:9 *13:12 2.56
10 *13:8 *559:B 4
11 *13:7 *13:10 4
12 *13:7 *13:9 0.24
13 *13:6 *13:8 4
14 *13:6 *13:7 1.28
15 *13:5 *13:6 0.8
16 *13:4 *13:5 0.24
17 *13:3 *13:4 0.64
18 *13:2 *13:3 4
19 *13:1 *13:2 4
20 *514:Y *13:1 0.4
*END

*D_NET *14 0

*CONN
*I *573:B I *C 90.8 64.5 *L 0 *D NOR2X1
*I *570:A I *C 94.8 63.5 *L 0 *D NAND2X1
*I *513:Y O *C 126 61.5 *L 0 *D INVX8
*I *424:A I *C 132.4 57.5 *L 0 *D NOR2X1
*I *558:A I *C 143.6 54.5 *L 0 *D NAND3X1
*I *528:A I *C 148.4 63.5 *L 0 *D XNOR2X1
*I *527:B I *C 154.8 63.5 *L 0 *D OR2X1
*I *477:A I *C 158.8 63.5 *L 0 *D HAX1

*CAP

*RES
1 *14:36 *477:A 4
2 *14:34 *527:B 4
3 *14:33 *14:36 0.8
4 *14:31 *528:A 4
5 *14:30 *14:34 0.8
6 *14:29 *14:33 4
7 *14:28 *558:A 4
8 *14:27 *14:31 0.8
9 *14:26 *14:30 4
10 *14:26 *14:29 1.04
11 *14:25 *14:28 1.6
12 *14:24 *14:27 4
13 *14:24 *14:26 1.68
14 *14:23 *14:25 4
15 *14:23 *14:24 1.28
16 *14:22 *14:23 0.64
17 *14:20 *14:22 0.24
18 *14:19 *424:A 4
19 *14:18 *14:20 1.92
20 *14:17 *14:19 1.04
21 *14:16 *14:18 0.48
22 *14:14 *14:17 4
23 *14:14 *14:16 0.4
24 *14:13 *513:Y 4
25 *14:12 *14:14 1.68
26 *14:12 *14:13 4
27 *14:11 *14:12 1.28
28 *14:10 *14:11 0.24
29 *14:9 *14:10 4
30 *14:8 *14:9 0.24
31 *14:7 *14:8 2.96
32 *14:5 *14:7 4
33 *14:4 *570:A 4
34 *14:4 *14:5 0.48
35 *14:3 *14:4 0.64
36 *14:2 *14:3 0.24
37 *14:1 *14:2 0.4
38 *573:B *14:1 4
*END

*D_NET *15 0

*CONN
*I *512:Y O *C 122 58.5 *L 0 *D INVX8
*I *424:B I *C 134 55.5 *L 0 *D NOR2X1
*I *558:B I *C 142.8 55.5 *L 0 *D NAND3X1
*I *529:B I *C 155.6 56.5 *L 0 *D OR2X1
*I *530:A I *C 148.4 56.5 *L 0 *D XNOR2X1
*I *478:A I *C 158 56.5 *L 0 *D HAX1
*I *533:B I *C 170.8 64.5 *L 0 *D NOR2X1

*CAP

*RES
1 *15:32 *533:B 4
2 *15:31 *15:32 2.88
3 *15:30 *15:31 0.16
4 *15:29 *15:30 4
5 *15:27 *15:29 1.44
6 *529:B *478:A 0.64
7 *15:24 *15:27 0.24
8 *15:23 *530:A 0.16
9 *15:22 *529:B 4
10 *15:21 *15:24 1.92
11 *15:19 *15:23 4
12 *15:18 *15:22 0.8
13 *15:17 *15:21 0.24
14 *15:15 *558:B 4
15 *15:14 *15:19 0.8
16 *15:13 *15:18 4
17 *15:13 *15:17 0.4
18 *15:12 *424:B 4
19 *15:11 *15:15 0.48
20 *15:10 *15:14 4
21 *15:10 *15:13 2.08
22 *15:9 *15:12 0.48
23 *15:8 *15:11 4
24 *15:8 *15:10 1.28
25 *15:7 *15:9 4
26 *15:7 *15:8 2.32
27 *15:6 *15:7 0.4
28 *15:5 *15:6 0.08
29 *15:4 *15:5 2.32
30 *15:3 *15:4 0.08
31 *15:2 *15:3 0.4
32 *15:1 *15:2 4
33 *512:Y *15:1 4
*END

*D_NET *16 0

*CONN
*I *569:A I *C 96.4 43.5 *L 0 *D OAI21X1
*I *519:Y O *C 111.6 41.5 *L 0 *D INVX8
*I *558:C I *C 142 53.5 *L 0 *D NAND3X1
*I *479:A I *C 155.6 43.5 *L 0 *D HAX1
*I *530:B I *C 153.2 56.5 *L 0 *D XNOR2X1
*I *529:A I *C 156.4 57.5 *L 0 *D OR2X1

*CAP

*RES
1 *16:25 *529:A 4
2 *16:23 *16:25 0.8
3 *16:21 *530:B 4
4 *16:21 *16:23 0.24
5 *16:20 *479:A 4
6 *16:19 *16:21 1.28
7 *16:18 *16:20 2.08
8 *16:18 *16:19 0.64
9 *16:17 *16:18 4
10 *16:16 *16:17 0.4
11 *16:14 *16:16 0.24
12 *16:13 *558:C 4
13 *16:12 *16:14 1.44
14 *16:11 *16:13 0.48
15 *16:10 *16:12 0.24
16 *16:9 *16:11 4
17 *16:9 *16:10 0.4
18 *16:7 *16:9 8.08
19 *16:6 *519:Y 4
20 *16:5 *16:7 4
21 *16:4 *16:6 0.24
22 *16:4 *16:5 2.08
23 *16:3 *16:4 4
24 *16:2 *16:3 4
25 *16:1 *16:2 4
26 *569:A *16:1 4
*END

*D_NET *17 0

*CONN
*I *583:B I *C 82.8 35.5 *L 0 *D NOR2X1
*I *567:A I *C 99.6 36.5 *L 0 *D NAND2X1
*I *623:A I *C 136.4 36.5 *L 0 *D INVX2
*I *518:Y O *C 133.2 38.5 *L 0 *D INVX8
*I *480:A I *C 139.6 36.5 *L 0 *D INVX2
*I *479:B I *C 154.8 44.5 *L 0 *D HAX1

*CAP

*RES
1 *17:22 *479:B 4
2 *17:21 *17:22 1.84
3 *17:20 *17:21 4
4 *17:18 *17:20 0.8
5 *17:16 *480:A 4
6 *17:15 *17:18 0.24
7 *623:A *518:Y 0.4
8 *17:13 *17:16 4
9 *17:13 *17:15 3.2
10 *17:12 *623:A 4
11 *17:11 *17:13 0.8
12 *17:11 *17:12 4
13 *17:10 *17:11 1.44
14 *17:9 *17:10 0.24
15 *17:7 *17:9 3.36
16 *17:6 *567:A 4
17 *17:5 *17:7 0.24
18 *17:4 *17:6 4
19 *17:4 *17:5 4.88
20 *17:3 *17:4 4.48
21 *17:2 *17:3 4
22 *17:1 *17:2 0.24
23 *583:B *17:1 4
*END

*D_NET *18 0

*CONN
*I *497:Y O *C 60.4 121.5 *L 0 *D INVX8
*I *473:B I *C 63.6 116.5 *L 0 *D XOR2X1
*I *554:A I *C 72.4 116.5 *L 0 *D XOR2X1
*I *441:C I *C 78.8 115.5 *L 0 *D AOI22X1
*I *581:B I *C 83.6 104.5 *L 0 *D NOR2X1
*I *562:A I *C 86 103.5 *L 0 *D NAND2X1

*CAP

*RES
1 *18:22 *562:A 0.16
2 *18:21 *18:22 4
3 *18:19 *18:21 0.24
4 *18:18 *581:B 4
5 *18:18 *18:19 0.4
6 *18:16 *18:18 1.28
7 *18:15 *441:C 0.16
8 *18:14 *18:16 0.4
9 *18:13 *18:15 4
10 *18:12 *18:14 1.84
11 *18:10 *18:13 0.24
12 *18:9 *18:12 4
13 *18:8 *554:A 4
14 *18:7 *18:10 4
15 *18:7 *18:9 1.04
16 *18:6 *18:8 4
17 *18:6 *18:7 1.44
18 *18:4 *18:6 2.32
19 *18:3 *473:B 4
20 *18:3 *18:4 4
21 *18:2 *18:3 1.28
22 *18:1 *18:2 0.8
23 *497:Y *18:1 4
*END

*D_NET *21 0

*CONN
*I *499:Y O *C 50 78.5 *L 0 *D INVX8
*I *468:A I *C 54.8 76.5 *L 0 *D HAX1
*I *549:B I *C 75.6 76.5 *L 0 *D AOI21X1
*I *548:B I *C 78.8 75.5 *L 0 *D NOR2X1
*I *366:C I *C 84.4 75.5 *L 0 *D AOI22X1
*I *574:A I *C 89.2 76.5 *L 0 *D NAND2X1
*I *500:B I *C 98.8 76.5 *L 0 *D OR2X2

*CAP

*RES
1 *21:33 *500:B 4
2 *21:32 *21:33 4
3 *21:31 *21:32 1.92
4 *21:29 *21:31 0.24
5 *21:28 *574:A 0.16
6 *21:27 *21:29 0.8
7 *21:26 *21:28 4
8 *21:25 *21:27 4
9 *21:25 *21:26 0.24
10 *21:24 *21:25 0.8
11 *21:22 *21:24 0.4
12 *21:21 *366:C 4
13 *21:20 *21:22 0.24
14 *21:19 *21:21 0.48
15 *21:18 *21:20 4
16 *21:17 *21:19 4
17 *21:17 *21:18 0.64
18 *21:16 *21:17 1.44
19 *21:14 *21:16 4
20 *21:13 *548:B 4
21 *21:13 *21:14 0.48
22 *21:11 *21:13 0.24
23 *21:10 *549:B 4
24 *21:9 *21:11 4
25 *21:8 *21:10 4
26 *21:8 *21:9 0.8
27 *21:7 *21:8 0.4
28 *21:6 *21:7 0.48
29 *21:5 *21:6 2.72
30 *21:4 *21:5 0.48
31 *21:3 *21:4 1.04
32 *21:2 *21:3 4
33 *468:A *21:2 4
34 *499:Y *468:A 0.8
*END

*D_NET *23 0

*CONN
*I *502:Y O *C 49.2 58.5 *L 0 *D INVX8
*I *470:A I *C 54.8 56.5 *L 0 *D HAX1
*I *544:B I *C 78.8 55.5 *L 0 *D NOR2X1
*I *545:B I *C 75.6 56.5 *L 0 *D AOI21X1
*I *352:C I *C 82 55.5 *L 0 *D AOI22X1
*I *503:B I *C 89.2 56.5 *L 0 *D OR2X2
*I *565:A I *C 91.6 56.5 *L 0 *D NAND2X1

*CAP

*RES
1 *23:27 *565:A 4
2 *23:26 *503:B 4
3 *23:25 *23:27 4
4 *23:23 *23:26 4
5 *23:23 *23:25 0.64
6 *23:20 *352:C 4
7 *23:19 *23:23 1.28
8 *23:18 *545:B 4
9 *23:17 *544:B 4
10 *23:16 *23:20 0.48
11 *23:15 *23:19 0.24
12 *23:14 *23:18 0.16
13 *23:13 *23:17 0.48
14 *23:12 *23:16 4
15 *23:12 *23:15 0.64
16 *23:11 *23:14 0.24
17 *23:10 *23:13 4
18 *23:10 *23:12 0.8
19 *23:9 *23:11 4
20 *23:9 *23:10 1.04
21 *23:8 *23:9 2.32
22 *23:7 *23:8 0.24
23 *23:6 *23:7 1.28
24 *23:5 *23:6 0.24
25 *23:4 *23:5 0.4
26 *23:3 *23:4 4
27 *23:2 *23:3 0.24
28 *470:A *23:2 4
29 *502:Y *470:A 1.04
*END

*D_NET *26 0

*CONN
*I *372:C I *C 160.4 126.5 *L 0 *D NAND3X1
*I *489:Y O *C 164.4 121.5 *L 0 *D INVX8

*CAP

*RES
1 *26:5 *489:Y 4
2 *26:3 *26:5 4
3 *26:2 *372:C 4
4 *26:1 *26:3 0.64
5 *26:0 *26:2 0.24
6 *26:0 *26:1 4
*END

*D_NET *27 0

*CONN
*I *441:A I *C 82 115.5 *L 0 *D AOI22X1
*I *511:A I *C 82.8 116.5 *L 0 *D INVX2
*I *330:Q O *C 110 101.5 *L 0 *D DFFPOSX1

*CAP

*RES
1 *27:15 *330:Q 2.72
2 *27:14 *27:15 4
3 *27:13 *27:14 4
4 *27:12 *27:13 4
5 *27:11 *27:12 2.52
6 *27:10 *27:11 4
7 *27:9 *27:10 0.24
8 *27:8 *27:9 0.4
9 *27:7 *27:8 0.24
10 *27:6 *27:7 1.28
11 *27:5 *27:6 0.24
12 *27:4 *27:5 2.72
13 *27:3 *27:4 4
14 *511:A *27:3 4
15 *27:1 *511:A 0.24
16 *441:A *27:1 0.16
*END

*D_NET *28 0

*CONN
*I *438:A I *C 82.8 104.5 *L 0 *D AOI22X1
*I *331:Q O *C 110 98.5 *L 0 *D DFFPOSX1
*I *510:A I *C 132.4 96.5 *L 0 *D INVX2
*I *482:A I *C 138.8 96.5 *L 0 *D XOR2X1
*I *541:A I *C 141.2 102.5 *L 0 *D NOR2X1
*I *522:A I *C 148.4 96.5 *L 0 *D XNOR2X1
*I *521:B I *C 154.8 96.5 *L 0 *D OR2X1
*I *474:A I *C 158.8 96.5 *L 0 *D HAX1
*I *557:B I *C 166.8 95.5 *L 0 *D NOR2X1

*CAP

*RES
1 *28:51 *557:B 4
2 *28:50 *28:51 4
3 *28:48 *28:50 1.92
4 *28:46 *474:A 4
5 *28:45 *28:48 0.24
6 *28:44 *521:B 4
7 *28:43 *28:46 4
8 *28:43 *28:45 0.16
9 *28:41 *28:44 4
10 *28:41 *28:43 1.04
11 *28:39 *522:A 4
12 *28:38 *28:41 1.04
13 *28:36 *541:A 4
14 *28:35 *28:39 0.24
15 *28:34 *28:38 0.24
16 *28:32 *482:A 4
17 *28:31 *28:36 1.28
18 *28:30 *28:35 4
19 *28:30 *28:34 0.64
20 *28:29 *510:A 4
21 *28:28 *28:32 0.24
22 *28:27 *28:31 4
23 *28:27 *28:30 1.92
24 *28:26 *28:29 0.24
25 *28:25 *28:28 4
26 *28:25 *28:27 0.64
27 *28:24 *28:26 4
28 *28:24 *28:25 1.68
29 *28:23 *28:24 0.4
30 *28:22 *28:23 0.08
31 *28:21 *28:22 2.08
32 *28:20 *28:21 0.08
33 *28:18 *28:20 2.08
34 *28:17 *331:Q 0.16
35 *28:16 *28:18 0.24
36 *28:15 *28:17 0.08
37 *28:14 *28:16 0.4
38 *28:13 *28:15 0.16
39 *28:12 *28:14 4
40 *28:12 *28:13 4
41 *28:11 *28:12 0.8
42 *28:10 *28:11 4
43 *28:9 *28:10 0.4
44 *28:8 *28:9 0.48
45 *28:7 *28:8 3.6
46 *28:6 *28:7 0.4
47 *28:5 *28:6 3.6
48 *28:3 *28:5 0.08
49 *28:2 *438:A 4
50 *28:1 *28:3 0.4
51 *28:0 *28:2 1.04
52 *28:0 *28:1 4
*END

*D_NET *29 0

*CONN
*I *349:A I *C 83.6 84.5 *L 0 *D AOI22X1
*I *332:Q O *C 110 81.5 *L 0 *D DFFPOSX1
*I *507:A I *C 136.4 83.5 *L 0 *D INVX2

*CAP

*RES
1 *29:28 *507:A 4
2 *29:27 *29:28 1.04
3 *29:25 *29:27 4
4 *29:24 *332:Q 0.64
5 *29:23 *29:25 4.24
6 *29:22 *29:24 0.24
7 *29:21 *29:23 0.24
8 *29:20 *29:22 1.68
9 *29:19 *29:21 3.2
10 *29:18 *29:20 0.24
11 *29:17 *29:19 0.24
12 *29:16 *29:18 0.4
13 *29:15 *29:17 1.92
14 *29:14 *29:16 4
15 *29:13 *29:15 0.24
16 *29:12 *29:14 0.8
17 *29:11 *29:13 0.4
18 *29:11 *29:12 4
19 *29:9 *29:11 1.68
20 *29:8 *349:A 0.16
21 *29:7 *29:9 4
22 *29:6 *29:8 4
23 *29:5 *29:7 0.91
24 *29:4 *29:6 1.84
25 *29:3 *29:5 4
26 *29:2 *29:4 0.16
27 *29:1 *29:3 2.56
28 *29:0 *29:2 0.8
29 *29:0 *29:1 4
*END

*D_NET *30 0

*CONN
*I *506:A I *C 81.2 76.5 *L 0 *D INVX2
*I *366:A I *C 87.6 75.5 *L 0 *D AOI22X1
*I *336:Q O *C 110.8 78.5 *L 0 *D DFFPOSX1
*I *537:B I *C 128.4 75.5 *L 0 *D NOR2X1
*I *538:B I *C 131.6 76.5 *L 0 *D AOI21X1

*CAP

*RES
1 *30:31 *538:B 4
2 *30:29 *30:31 0.24
3 *30:28 *537:B 4
4 *30:27 *30:29 4
5 *30:26 *30:28 4
6 *30:26 *30:27 0.8
7 *30:25 *30:26 1.44
8 *30:24 *30:25 0.24
9 *30:23 *30:24 2.08
10 *30:22 *30:23 0.48
11 *30:20 *30:22 3.6
12 *30:19 *336:Q 2.96
13 *30:18 *30:20 0.48
14 *30:17 *30:19 4
15 *30:16 *30:18 0.4
16 *30:16 *30:17 4
17 *30:15 *30:16 4
18 *30:14 *30:15 0.7
19 *30:13 *30:14 4
20 *30:12 *30:13 0.4
21 *30:11 *30:12 0.24
22 *30:10 *30:11 1.44
23 *30:9 *30:10 0.24
24 *30:8 *30:9 1.28
25 *30:6 *30:8 4
26 *30:5 *366:A 4
27 *30:5 *30:6 0.48
28 *30:3 *30:5 4
29 *30:2 *506:A 4
30 *30:1 *30:3 1.68
31 *30:0 *30:2 0.24
32 *30:0 *30:1 4
*END

*D_NET *31 0

*CONN
*I *359:A I *C 86.8 64.5 *L 0 *D AOI22X1
*I *338:Q O *C 110 61.5 *L 0 *D DFFPOSX1
*I *505:A I *C 131.6 63.5 *L 0 *D INVX2

*CAP

*RES
1 *31:12 *505:A 0.16
2 *31:11 *31:12 4
3 *31:10 *31:11 4
4 *31:8 *31:10 6.4
5 *31:7 *338:Q 2.72
6 *31:6 *31:8 0.24
7 *31:5 *31:7 4
8 *31:4 *31:6 1.92
9 *31:4 *31:5 4
10 *31:3 *31:4 3.2
11 *31:2 *31:3 4
12 *31:1 *31:2 4
13 *359:A *31:1 0.16
*END

*D_NET *32 0

*CONN
*I *352:A I *C 85.2 55.5 *L 0 *D AOI22X1
*I *340:Q O *C 110 58.5 *L 0 *D DFFPOSX1
*I *534:B I *C 135.6 56.5 *L 0 *D AOI21X1
*I *504:A I *C 125.2 43.5 *L 0 *D INVX2

*CAP

*RES
1 *32:29 *504:A 0.16
2 *32:28 *32:29 4
3 *32:26 *32:28 0.24
4 *32:25 *534:B 4
5 *32:24 *32:26 0.16
6 *32:23 *32:25 2.4
7 *32:22 *32:24 0.8
8 *32:21 *32:23 4
9 *32:20 *32:22 4
10 *32:20 *32:21 3.2
11 *32:19 *32:20 1.28
12 *32:18 *32:19 0.24
13 *32:17 *32:18 4.64
14 *32:15 *32:17 0.24
15 *32:14 *340:Q 2.72
16 *32:13 *32:15 0.64
17 *32:12 *32:14 4
18 *32:11 *32:13 4
19 *32:10 *32:12 0.16
20 *32:9 *32:11 1.28
21 *32:9 *32:10 0.8
22 *32:8 *32:9 4
23 *32:7 *32:8 0.4
24 *32:6 *32:7 0.24
25 *32:5 *32:6 2.56
26 *32:3 *32:5 0.24
27 *32:2 *352:A 4
28 *32:1 *32:3 0.64
29 *32:0 *32:2 0.8
30 *32:0 *32:1 4
*END

*D_NET *33 0

*CONN
*I *346:A I *C 91.6 44.5 *L 0 *D AOI22X1
*I *327:Q O *C 110 38.5 *L 0 *D DFFPOSX1
*I *508:A I *C 133.2 43.5 *L 0 *D INVX2

*CAP

*RES
1 *33:17 *508:A 4
2 *33:16 *33:17 0.24
3 *33:15 *33:16 4
4 *33:14 *33:15 5.52
5 *33:12 *33:14 0.48
6 *33:11 *327:Q 2.72
7 *33:10 *33:12 3.36
8 *33:9 *33:11 4
9 *33:8 *33:10 0.48
10 *33:6 *33:9 4
11 *33:5 *33:8 2.08
12 *33:4 *346:A 4
13 *33:3 *33:6 1.44
14 *33:2 *33:5 4
15 *33:2 *33:4 0.48
16 *33:1 *33:3 4
17 *33:0 *33:2 2.4
18 *33:0 *33:1 0.64
*END

*D_NET *34 0

*CONN
*I *496:A I *C 62.8 123.5 *L 0 *D INVX2
*I *325:Q O *C 64.4 121.5 *L 0 *D DFFPOSX1

*CAP

*RES
1 *496:A *325:Q 0.4
*END

*D_NET *35 0

*CONN
*I *466:A I *C 55.6 103.5 *L 0 *D HAX1
*I *326:Q O *C 58 118.5 *L 0 *D DFFPOSX1
*I *553:A I *C 75.6 102.5 *L 0 *D NOR2X1
*I *552:A I *C 68.4 103.5 *L 0 *D XNOR2X1
*I *487:A I *C 78 102.5 *L 0 *D INVX1
*I *438:C I *C 79.6 104.5 *L 0 *D AOI22X1

*CAP

*RES
1 *35:21 *438:C 4
2 *553:A *487:A 0.64
3 *35:18 *35:21 0.48
4 *35:17 *552:A 4
5 *35:16 *553:A 4
6 *35:15 *35:18 4
7 *35:14 *35:17 0.24
8 *35:13 *35:16 4
9 *35:13 *35:15 1.04
10 *35:12 *35:14 4
11 *35:12 *35:13 1.92
12 *35:11 *35:12 0.4
13 *35:9 *35:11 0.24
14 *35:8 *326:Q 4
15 *35:7 *35:9 2.56
16 *35:6 *35:8 1.04
17 *35:5 *35:7 0.24
18 *35:3 *35:6 0.64
19 *35:2 *35:5 0.4
20 *35:1 *466:A 4
21 *35:1 *35:3 1.04
22 *35:0 *35:2 4
23 *35:0 *35:1 0.24
*END

*D_NET *36 0

*CONN
*I *342:Q O *C 53.2 98.5 *L 0 *D DFFPOSX1
*I *467:A I *C 55.6 96.5 *L 0 *D HAX1
*I *493:A I *C 77.2 82.5 *L 0 *D INVX1
*I *349:C I *C 80.4 84.5 *L 0 *D AOI22X1

*CAP

*RES
1 *36:11 *349:C 4
2 *36:10 *36:11 4
3 *36:8 *36:10 0.16
4 *36:7 *493:A 4
5 *36:6 *36:8 0.48
6 *36:5 *36:7 4
7 *36:5 *36:6 0.64
8 *36:4 *36:5 4.48
9 *36:3 *36:4 4
10 *36:2 *36:3 3.68
11 *467:A *36:2 4
12 *342:Q *467:A 0.64
*END

*D_NET *37 0

*CONN
*I *337:Q O *C 36.4 78.5 *L 0 *D DFFPOSX1
*I *498:A I *C 47.6 76.5 *L 0 *D INVX2

*CAP

*RES
1 *37:5 *498:A 0.4
2 *37:4 *37:5 4
3 *37:3 *37:4 4
4 *37:2 *37:3 2.56
5 *37:1 *37:2 4
6 *337:Q *37:1 4
*END

*D_NET *38 0

*CONN
*I *339:Q O *C 53.2 61.5 *L 0 *D DFFPOSX1
*I *469:A I *C 54.8 63.5 *L 0 *D HAX1
*I *359:C I *C 83.6 64.5 *L 0 *D AOI22X1
*I *491:A I *C 87.6 62.5 *L 0 *D INVX1

*CAP

*RES
1 *38:13 *491:A 4
2 *38:12 *359:C 4
3 *38:11 *38:13 0.24
4 *38:10 *38:12 0.24
5 *38:9 *38:11 4
6 *38:8 *38:10 4
7 *38:8 *38:9 1.04
8 *38:7 *38:8 2.72
9 *38:6 *38:7 0.24
10 *38:5 *38:6 2.56
11 *38:4 *38:5 0.24
12 *38:3 *38:4 1.04
13 *38:2 *38:3 4
14 *469:A *38:2 4
15 *339:Q *469:A 0.4
*END

*D_NET *39 0

*CONN
*I *341:Q O *C 35.6 58.5 *L 0 *D DFFPOSX1
*I *501:A I *C 46.8 56.5 *L 0 *D INVX2

*CAP

*RES
1 *39:5 *501:A 0.4
2 *39:4 *39:5 4
3 *39:3 *39:4 4
4 *39:2 *39:3 2.56
5 *39:1 *39:2 4
6 *341:Q *39:1 4
*END

*D_NET *40 0

*CONN
*I *471:A I *C 67.6 43.5 *L 0 *D HAX1
*I *485:A I *C 73.2 37.5 *L 0 *D INVX1
*I *568:C I *C 85.2 45.5 *L 0 *D OAI21X1
*I *346:C I *C 88.4 44.5 *L 0 *D AOI22X1
*I *584:C I *C 93.2 42.5 *L 0 *D AOI21X1